Version 4
SHEET 1 880 804
WIRE 496 -64 432 -64
WIRE -64 -32 -192 -32
WIRE -64 0 -64 -32
WIRE 496 32 496 16
WIRE 496 32 96 32
WIRE 432 48 432 -64
WIRE 496 48 496 32
WIRE -64 96 -64 80
WIRE 128 96 -64 96
WIRE 256 96 208 96
WIRE 352 96 256 96
WIRE 368 96 352 96
WIRE -192 112 -192 -32
WIRE -64 112 -64 96
WIRE 576 112 560 112
WIRE 576 144 560 144
WIRE 96 160 96 32
WIRE 96 160 48 160
WIRE 128 160 96 160
WIRE 256 160 208 160
WIRE 352 160 256 160
WIRE 368 160 352 160
WIRE -64 208 -64 192
WIRE 48 208 48 160
WIRE 48 208 -64 208
WIRE -64 224 -64 208
WIRE 432 224 432 208
WIRE 496 304 496 208
WIRE 496 304 432 304
WIRE 432 320 432 304
WIRE -192 336 -192 192
WIRE -64 336 -64 304
WIRE -64 336 -192 336
FLAG 432 320 0
FLAG 576 112 Vo+
FLAG 576 144 Vo-
FLAG 352 96 vinp
FLAG 352 160 vinn
SYMBOL res -80 96 R0
SYMATTR InstName R1
SYMATTR Value 2.7k
SYMBOL res -80 -16 R0
SYMATTR InstName R2
SYMATTR Value 100k
SYMBOL res -80 208 R0
SYMATTR InstName R3
SYMATTR Value 100k
SYMBOL OpAmps\\AMC1200 464 128 R0
WINDOW 0 57 -54 Right 2
WINDOW 3 63 57 Right 2
SYMATTR InstName U2
SYMBOL voltage 496 -80 R0
WINDOW 0 34 31 Left 2
WINDOW 3 35 49 Left 2
WINDOW 123 0 0 Left 0
WINDOW 39 0 0 Left 0
SYMATTR InstName V1
SYMATTR Value 5
SYMBOL voltage 432 208 R0
WINDOW 0 -57 43 Left 2
WINDOW 3 -46 64 Left 2
WINDOW 123 0 0 Left 0
WINDOW 39 0 0 Left 0
SYMATTR InstName V2
SYMATTR Value 5
SYMBOL voltage -192 96 R0
WINDOW 123 -78 70 Left 2
WINDOW 39 0 0 Left 0
WINDOW 0 -60 43 Left 2
WINDOW 3 -33 103 Right 2
SYMATTR Value2 AC 1
SYMATTR InstName V4
SYMATTR Value ""
SYMBOL cap 240 96 R0
WINDOW 3 36 32 Left 2
SYMATTR Value 330p
SYMATTR InstName C1
SYMBOL res 224 80 R90
WINDOW 0 0 56 VBottom 2
WINDOW 3 32 56 VTop 2
SYMATTR InstName R4
SYMATTR Value 12
SYMBOL res 224 144 R90
WINDOW 0 0 56 VBottom 2
WINDOW 3 32 56 VTop 2
SYMATTR InstName R5
SYMATTR Value 12
TEXT -520 416 Left 2 ;.tran 0 1 0 1u
TEXT -520 384 Left 2 !.param tal=10n
TEXT -520 448 Left 2 !.dc v4 -0 60 2
TEXT -520 352 Left 2 !.param Vp=500m
TEXT -522 480 Left 2 ;.ac dec 10 1k 100meg
