Version 4
SHEET 1 880 784
WIRE -64 -32 -192 -32
WIRE 496 -16 432 -16
WIRE -64 0 -64 -32
WIRE 432 64 432 -16
WIRE -64 96 -64 80
WIRE 80 96 -64 96
WIRE -192 112 -192 -32
WIRE -64 112 -64 96
WIRE 80 112 80 96
WIRE 112 112 80 112
WIRE 144 112 112 112
WIRE 272 112 224 112
WIRE 368 112 272 112
WIRE 576 128 560 128
WIRE 576 160 560 160
WIRE 144 176 80 176
WIRE 272 176 224 176
WIRE 368 176 272 176
WIRE -64 208 -64 192
WIRE 32 208 -64 208
WIRE 80 208 80 176
WIRE 80 208 32 208
WIRE -64 224 -64 208
WIRE 432 240 432 224
WIRE 496 320 496 224
WIRE 496 320 432 320
WIRE 432 336 432 320
WIRE -192 352 -192 192
WIRE -64 352 -64 304
WIRE -64 352 -192 352
WIRE 496 416 432 416
WIRE 432 496 432 416
WIRE 112 544 112 112
WIRE 368 544 112 544
WIRE 576 560 560 560
WIRE 576 592 560 592
WIRE 32 608 32 208
WIRE 368 608 32 608
WIRE 432 672 432 656
WIRE 496 752 496 656
WIRE 496 752 432 752
WIRE 432 768 432 752
FLAG 432 336 0
FLAG 576 128 Vo+
FLAG 576 160 Vo-
FLAG 368 112 vinp
FLAG 368 176 vinn
FLAG 432 768 0
FLAG 576 560 Vo1+
FLAG 576 592 Vo1-
FLAG 368 544 vinp1
FLAG 368 608 vinn1
SYMBOL res -80 96 R0
SYMATTR InstName R1
SYMATTR Value 1k noiseless
SYMBOL res -80 -16 R0
SYMATTR InstName R2
SYMATTR Value 50k noiseless
SYMBOL res -80 208 R0
SYMATTR InstName R3
SYMATTR Value 50k noiseless
SYMBOL OpAmps\\AMC1200 464 144 R0
WINDOW 0 57 -54 Right 2
WINDOW 3 63 57 Right 2
SYMATTR InstName U2
SYMBOL voltage 496 -32 R0
WINDOW 0 34 31 Left 2
WINDOW 3 35 49 Left 2
WINDOW 123 0 0 Left 0
WINDOW 39 0 0 Left 0
SYMATTR InstName V1
SYMATTR Value 5
SYMBOL voltage 432 224 R0
WINDOW 0 -57 43 Left 2
WINDOW 3 -46 64 Left 2
WINDOW 123 0 0 Left 0
WINDOW 39 0 0 Left 0
SYMATTR InstName V2
SYMATTR Value 5
SYMBOL voltage -192 96 R0
WINDOW 123 -78 70 Left 2
WINDOW 39 0 0 Left 0
WINDOW 0 -60 43 Left 2
WINDOW 3 -33 103 Right 2
SYMATTR Value2 AC 1
SYMATTR InstName V4
SYMATTR Value PULSE(-50 50 0 1m 1m 1u 2m)
SYMBOL cap 256 112 R0
SYMATTR InstName C1
SYMATTR Value 330p
SYMBOL res 240 96 R90
WINDOW 0 0 56 VBottom 2
WINDOW 3 32 56 VTop 2
SYMATTR InstName R4
SYMATTR Value 12
SYMBOL res 240 160 R90
WINDOW 0 0 56 VBottom 2
WINDOW 3 32 56 VTop 2
SYMATTR InstName R5
SYMATTR Value 12
SYMBOL OpAmps\\AMC1200 464 576 R0
WINDOW 0 57 -54 Right 2
WINDOW 3 63 57 Right 2
SYMATTR InstName U1
SYMBOL voltage 496 400 R0
WINDOW 0 34 31 Left 2
WINDOW 3 35 49 Left 2
WINDOW 123 0 0 Left 0
WINDOW 39 0 0 Left 0
SYMATTR InstName V3
SYMATTR Value 5
SYMBOL voltage 432 656 R0
WINDOW 0 -57 43 Left 2
WINDOW 3 -46 64 Left 2
WINDOW 123 0 0 Left 0
WINDOW 39 0 0 Left 0
SYMATTR InstName V5
SYMATTR Value 5
TEXT 112 0 Left 2 !.tran 2m
