Version 4
SHEET 1 1344 1248
WIRE -480 -144 -480 -192
WIRE -464 -144 -480 -144
WIRE -400 -144 -400 -192
WIRE -400 -144 -416 -144
WIRE -464 -128 -464 -144
WIRE -416 -128 -416 -144
WIRE -480 -80 -592 -80
WIRE -256 -80 -400 -80
WIRE 768 -48 704 -48
WIRE -752 32 -816 32
WIRE -672 32 -752 32
WIRE -592 32 -592 -80
WIRE -592 32 -672 32
WIRE -560 32 -592 32
WIRE -432 32 -480 32
WIRE -384 32 -432 32
WIRE -256 32 -256 -80
WIRE -256 32 -304 32
WIRE -160 32 -256 32
WIRE -96 32 -160 32
WIRE -32 32 -96 32
WIRE 768 32 272 32
WIRE 704 48 704 -48
WIRE 768 48 768 32
WIRE -816 64 -816 32
WIRE -160 64 -160 32
WIRE -432 96 -432 32
WIRE -32 96 -32 32
WIRE 0 96 -32 96
WIRE 128 96 80 96
WIRE 368 96 128 96
WIRE 512 96 448 96
WIRE 624 96 512 96
WIRE 640 96 624 96
WIRE 128 112 128 96
WIRE 848 112 832 112
WIRE -752 128 -752 32
WIRE -672 128 -672 32
WIRE 848 144 832 144
WIRE 272 160 272 32
WIRE 272 160 224 160
WIRE 368 160 272 160
WIRE 512 160 448 160
WIRE 624 160 512 160
WIRE 640 160 624 160
WIRE -160 176 -160 144
WIRE -816 192 -816 128
WIRE 0 208 -32 208
WIRE 128 208 128 192
WIRE 128 208 80 208
WIRE 224 208 224 160
WIRE 224 208 128 208
WIRE 704 224 704 208
WIRE -816 288 -816 272
WIRE -752 288 -752 192
WIRE -752 288 -816 288
WIRE -672 288 -672 208
WIRE -672 288 -752 288
WIRE -160 288 -160 256
WIRE -160 288 -672 288
WIRE -96 288 -160 288
WIRE -32 288 -32 208
WIRE -32 288 -96 288
WIRE 768 304 768 208
WIRE 768 304 704 304
WIRE 704 320 704 304
WIRE -16 368 -64 368
WIRE 32 368 -16 368
WIRE -16 448 -64 448
WIRE 32 448 -16 448
WIRE -16 480 -16 448
FLAG -16 480 0
FLAG -16 368 Rq
FLAG 848 112 Vo+
FLAG 848 144 Vo-
FLAG 624 96 vinp
FLAG 624 160 vinn
FLAG -432 96 COM
FLAG 704 320 0
FLAG -96 32 vt1
FLAG -96 288 vt2
SYMBOL res 112 96 R0
SYMATTR InstName R2
SYMATTR Value 2.7k
SYMBOL res -16 80 M90
WINDOW 0 0 56 VBottom 2
WINDOW 3 32 56 VTop 2
SYMATTR InstName R1
SYMATTR Value 100k
SYMBOL res 96 224 M270
WINDOW 0 32 56 VTop 2
WINDOW 3 0 56 VBottom 2
SYMATTR InstName R3
SYMATTR Value 100k
SYMBOL res -176 48 R0
SYMATTR InstName R4
SYMATTR Value R=V(Rq)
SYMBOL current -672 208 R180
WINDOW 0 -45 80 Left 2
WINDOW 3 -79 17 Left 2
WINDOW 123 0 0 Left 0
WINDOW 39 0 0 Left 0
SYMATTR InstName I1
SYMATTR Value {Iop}
SYMBOL voltage -64 352 R0
WINDOW 0 -9 16 Right 2
WINDOW 3 -9 94 Right 2
WINDOW 123 0 0 Left 0
WINDOW 39 0 0 Left 0
SYMATTR InstName V1
SYMATTR Value PULSE(1u 20m 10m 150m 1 5)
SYMBOL current 32 368 R0
WINDOW 123 0 0 Left 0
WINDOW 39 0 0 Left 0
SYMATTR InstName I2
SYMATTR Value 1
SYMBOL ind -176 160 R0
SYMATTR InstName L1
SYMATTR Value {Lcentral}
SYMATTR SpiceLine Rser=0
SYMBOL OpAmps\\AMC1200 736 128 R0
WINDOW 0 57 -54 Right 2
WINDOW 3 63 57 Right 2
SYMATTR InstName U1
SYMBOL voltage 768 -64 R0
WINDOW 0 34 31 Left 2
WINDOW 3 35 49 Left 2
WINDOW 123 0 0 Left 0
WINDOW 39 0 0 Left 0
SYMATTR InstName V4
SYMATTR Value 5
SYMBOL res -576 48 R270
WINDOW 0 32 56 VTop 2
WINDOW 3 0 56 VBottom 2
SYMATTR InstName R5
SYMATTR Value 0.33
SYMBOL res -400 48 R270
WINDOW 0 32 56 VTop 2
WINDOW 3 0 56 VBottom 2
SYMATTR InstName R6
SYMATTR Value 0.33
SYMBOL sw -384 -80 R90
WINDOW 0 47 -4 Invisible 2
WINDOW 3 -22 90 VRight 2
SYMATTR InstName Contactor1
SYMATTR Value MYSW
SYMBOL voltage -496 -192 R270
WINDOW 0 32 56 VTop 2
WINDOW 3 -32 56 VBottom 2
WINDOW 123 0 0 Left 0
WINDOW 39 0 0 Left 0
SYMATTR InstName V2
SYMATTR Value PULSE(0 1 90m 1u 0 300m)
SYMBOL diode -736 192 R180
WINDOW 0 43 7 VRight 2
WINDOW 3 24 0 Invisible 2
SYMATTR InstName Dfw1
SYMATTR Value Dideal
SYMBOL voltage -816 176 M0
WINDOW 123 0 0 Left 0
WINDOW 39 0 0 Left 0
SYMATTR InstName V3
SYMATTR Value 10
SYMBOL diode -800 64 M0
WINDOW 3 24 64 Invisible 2
SYMATTR Value Dlim
SYMATTR InstName D1
SYMBOL res 352 112 R270
WINDOW 0 32 56 VTop 2
WINDOW 3 0 56 VBottom 2
SYMATTR InstName R7
SYMATTR Value 12
SYMBOL res 352 176 R270
WINDOW 0 32 56 VTop 2
WINDOW 3 0 56 VBottom 2
SYMATTR InstName R8
SYMATTR Value 12
SYMBOL cap 496 96 R0
SYMATTR InstName C1
SYMATTR Value 330p
SYMBOL voltage 704 208 R0
WINDOW 0 34 31 Left 2
WINDOW 3 35 49 Left 2
WINDOW 123 0 0 Left 0
WINDOW 39 0 0 Left 0
SYMATTR InstName V5
SYMATTR Value 5
TEXT -816 440 Left 2 !.ic I(L1)=Iop
TEXT -816 408 Left 2 !.param Iop=300 Lcentral=38.5m Lside=14m
TEXT -816 472 Left 2 !.step param Rquench 1u 20m 200u
TEXT -816 504 Left 2 !.tran 300m
TEXT -816 376 Left 2 !.model MYSW SW(Vt=0.9, Vh=1u, Ron=1000G, Roff=1u)
TEXT -816 536 Left 2 !.model Dideal D(Ron=1u, Roff=1000G, Vfwd=1)
TEXT -816 568 Left 2 !.model Dlim D(Ron=1u, Roff=1000G, Vfwd=0)
TEXT -816 600 Left 2 !.option plotvntol=100e-6 plotabstol=10e-9 nomarch
