Version 4
SHEET 1 1060 856
WIRE -64 -176 -64 -192
WIRE -400 -144 -464 -144
WIRE 224 -112 144 -112
WIRE 416 -112 304 -112
WIRE 448 -112 416 -112
WIRE 560 -112 528 -112
WIRE -400 -64 -848 -64
WIRE 144 -64 144 -112
WIRE -64 -48 -64 -96
WIRE -464 -32 -464 -144
WIRE -400 -32 -400 -64
WIRE -272 -32 -304 -32
WIRE -96 -32 -272 -32
WIRE -1232 0 -1408 0
WIRE -1104 0 -1152 0
WIRE -960 0 -1024 0
WIRE -800 0 -960 0
WIRE -672 0 -720 0
WIRE -576 0 -672 0
WIRE -96 0 -192 0
WIRE -1408 16 -1408 0
WIRE -960 16 -960 0
WIRE -672 16 -672 0
WIRE -576 16 -576 0
WIRE -544 16 -576 16
WIRE -528 16 -544 16
WIRE 416 16 416 -112
WIRE 448 16 416 16
WIRE -304 32 -304 -32
WIRE -304 32 -336 32
WIRE 560 32 560 -112
WIRE 560 32 512 32
WIRE 688 32 560 32
WIRE 160 48 80 48
WIRE 224 48 160 48
WIRE 368 48 304 48
WIRE 448 48 368 48
WIRE -304 64 -336 64
WIRE -544 80 -576 80
WIRE -528 80 -544 80
WIRE -192 96 -192 80
WIRE -96 96 -192 96
WIRE -1408 112 -1408 96
WIRE -1232 112 -1408 112
WIRE -1104 112 -1152 112
WIRE -960 112 -960 96
WIRE -960 112 -1024 112
WIRE -848 112 -848 -64
WIRE -848 112 -960 112
WIRE -800 112 -848 112
WIRE -672 112 -672 80
WIRE -672 112 -720 112
WIRE -576 112 -576 80
WIRE -576 112 -672 112
WIRE -304 128 -304 64
WIRE -272 128 -304 128
WIRE -96 128 -272 128
WIRE -464 144 -464 128
WIRE 560 144 528 144
WIRE 656 144 640 144
WIRE -64 160 -64 144
WIRE 528 208 528 144
WIRE 560 208 528 208
WIRE 656 224 656 144
WIRE 656 224 624 224
WIRE 736 224 656 224
WIRE 912 224 816 224
WIRE -464 240 -464 224
WIRE -400 240 -400 128
WIRE -400 240 -464 240
WIRE 160 240 160 48
WIRE 416 240 160 240
WIRE 528 240 496 240
WIRE 560 240 528 240
WIRE -464 256 -464 240
WIRE -64 256 -64 240
WIRE 528 272 528 240
WIRE 528 352 528 336
WIRE -320 448 -384 448
WIRE -288 448 -320 448
WIRE -160 448 -208 448
WIRE -32 448 -80 448
WIRE 0 448 -32 448
WIRE 112 448 80 448
WIRE 208 448 112 448
WIRE 368 448 368 48
WIRE 368 448 288 448
WIRE -384 496 -384 448
WIRE 368 496 368 448
WIRE -320 528 -320 448
WIRE -256 528 -256 496
WIRE -256 528 -320 528
WIRE -32 576 -32 448
WIRE 0 576 -32 576
WIRE 112 592 112 448
WIRE 112 592 64 592
WIRE 368 592 368 560
WIRE -240 608 -336 608
WIRE 0 608 -160 608
WIRE -336 624 -336 608
WIRE -336 720 -336 704
FLAG -336 720 0
FLAG -384 496 0
FLAG 368 592 0
FLAG 144 -64 0
FLAG -64 256 0
FLAG -64 -192 0
FLAG 16 112 0
FLAG 688 32 Vdet
FLAG 912 224 Vmonitor
FLAG 528 352 0
FLAG -272 -32 Vo+
FLAG -272 128 Vo-
FLAG -544 16 vinp
FLAG -544 80 vinn
FLAG -464 256 0
SYMBOL OpAmps\\AD8421 -64 48 R0
SYMATTR InstName U1
SYMBOL res -208 -16 R0
SYMATTR InstName R1
SYMATTR Value 2490
SYMBOL OpAmps\\opamp 32 528 R0
SYMATTR InstName U2
SYMBOL voltage -336 608 R0
WINDOW 0 -91 49 Left 2
WINDOW 123 0 0 Left 0
WINDOW 39 0 0 Left 0
SYMATTR InstName Vref
SYMATTR Value 5
SYMBOL res -144 592 R90
WINDOW 0 0 56 VBottom 2
WINDOW 3 32 56 VTop 2
SYMATTR InstName R2
SYMATTR Value 620
SYMBOL res 96 432 R90
WINDOW 0 0 56 VBottom 2
WINDOW 3 32 56 VTop 2
SYMATTR InstName R3
SYMATTR Value 620
SYMBOL res -64 432 R90
WINDOW 0 0 56 VBottom 2
WINDOW 3 32 56 VTop 2
SYMATTR InstName R4
SYMATTR Value 14k
SYMBOL OpAmps\\opamp 480 -32 R0
SYMATTR InstName U3
SYMBOL res 320 32 R90
WINDOW 0 0 56 VBottom 2
WINDOW 3 32 56 VTop 2
SYMATTR InstName R6
SYMATTR Value 1500
SYMBOL res 544 -128 R90
WINDOW 0 0 56 VBottom 2
WINDOW 3 32 56 VTop 2
SYMATTR InstName Rf
SYMATTR Value 47000
SYMBOL res 320 -128 R90
WINDOW 0 0 56 VBottom 2
WINDOW 3 32 56 VTop 2
SYMATTR InstName Rg
SYMATTR Value 2490
SYMBOL res 304 432 R90
WINDOW 0 0 56 VBottom 2
WINDOW 3 32 56 VTop 2
SYMATTR InstName R7
SYMATTR Value 60400
SYMBOL cap 352 496 R0
SYMATTR InstName C1
SYMATTR Value 100n
SYMBOL voltage -64 144 R0
WINDOW 123 0 0 Left 0
WINDOW 39 0 0 Left 0
SYMATTR InstName V2
SYMATTR Value -14
SYMBOL voltage -64 -80 R180
WINDOW 123 0 0 Left 0
WINDOW 39 0 0 Left 0
SYMATTR InstName V3
SYMATTR Value 14
SYMBOL OpAmps\\opamp 592 160 R0
WINDOW 0 9 93 Left 2
SYMATTR InstName U4
SYMBOL res 512 224 R90
WINDOW 0 0 56 VBottom 2
WINDOW 3 32 56 VTop 2
SYMATTR InstName R5
SYMATTR Value 1500
SYMBOL cap 512 272 R0
SYMATTR InstName C2
SYMATTR Value 100n
SYMBOL res 832 208 R90
WINDOW 0 0 56 VBottom 2
WINDOW 3 32 56 VTop 2
SYMATTR InstName R8
SYMATTR Value 50
SYMBOL res -976 0 R0
SYMATTR InstName Rdiv
SYMATTR Value 2.7k
SYMBOL res -1120 -16 M90
WINDOW 0 0 56 VBottom 2
WINDOW 3 32 56 VTop 2
SYMATTR InstName Rin2
SYMATTR Value 48.7k
SYMBOL res -1008 128 M270
WINDOW 0 32 56 VTop 2
WINDOW 3 0 56 VBottom 2
SYMATTR InstName Rin3
SYMATTR Value 48.7k
SYMBOL AMC1200 -432 48 R0
WINDOW 0 57 -54 Right 2
WINDOW 3 63 57 Right 2
SYMATTR InstName U5
SYMBOL voltage -400 -160 R0
WINDOW 0 34 24 Left 2
WINDOW 3 35 49 Left 2
WINDOW 123 0 0 Left 0
WINDOW 39 0 0 Left 0
SYMATTR InstName VDD1
SYMATTR Value 5
SYMBOL res -816 16 R270
WINDOW 0 32 56 VTop 2
WINDOW 3 0 56 VBottom 2
SYMATTR InstName R12
SYMATTR Value 12
SYMBOL res -816 128 R270
WINDOW 0 32 56 VTop 2
WINDOW 3 0 56 VBottom 2
SYMATTR InstName R13
SYMATTR Value 12
SYMBOL cap -688 16 R0
SYMATTR InstName C3
SYMATTR Value 330p
SYMBOL voltage -464 128 R0
WINDOW 0 -102 41 Left 2
WINDOW 3 -74 72 Left 2
WINDOW 123 0 0 Left 0
WINDOW 39 0 0 Left 0
SYMATTR InstName VDD2
SYMATTR Value 5
SYMBOL voltage -1408 0 R0
WINDOW 0 49 31 Left 2
WINDOW 123 49 59 Left 2
WINDOW 39 0 0 Left 0
WINDOW 3 50 84 Left 2
SYMATTR InstName Vin
SYMATTR Value2 AC 1
SYMATTR Value 0
SYMBOL res 656 128 R90
WINDOW 0 0 56 VBottom 2
WINDOW 3 32 56 VTop 2
SYMATTR InstName R14
SYMATTR Value 1500
SYMBOL pot -256 464 R90
WINDOW 0 46 10 VRight 2
WINDOW 3 -53 -47 VRight 2
WINDOW 39 75 -20 Right 1
SYMATTR InstName TR1
SYMATTR Value Rtot=5K
SYMATTR SpiceLine wiper=0.5
SYMBOL res -1248 -16 M90
WINDOW 0 0 56 VBottom 2
WINDOW 3 32 56 VTop 2
SYMATTR InstName Rin1
SYMATTR Value 48.7k
SYMBOL res -1136 128 M270
WINDOW 0 32 56 VTop 2
WINDOW 3 0 56 VBottom 2
SYMATTR InstName Rin4
SYMATTR Value 48.7k
TEXT -1264 368 Left 2 !.dc Vin -0.2 0.2 0.01\n;dc Vin -20 20 20\n;ac dec 5 10 100k\n;tran 1m
TEXT -1264 504 Left 2 !.lib opamp.sub
TEXT -64 -280 Center 2 ;Differential to single-ended circuit\nG = 5
TEXT 376 -232 Center 2 ;Gain + offset circuit\nG = 20, Offset = 2.5
TEXT -144 712 Left 2 ;Adjustable 5V reference for offset
TEXT -248 344 Center 2 ;5K trimpot for \noffset adj.
TEXT 552 440 Center 2 ;Low-pass filter\nfcut = 1061 Hz (Vin)\nfcut = 26 Hz (Vref)
TEXT 704 -32 Center 2 ;...to window \ncomparator circuit
TEXT 952 152 Center 2 ;...to buffered \nBNC monitor
TEXT 784 280 Center 2 ;Resistor for\nstability under \ncapacitive loads\n(coaxial cables)
TEXT -816 -128 Center 2 ;Isolated analog front-end
TEXT -1384 -56 Center 2 ;From voltage \ntaps...
TEXT -1264 288 Left 2 !;step param RdivX 2670 2730 30\n;step param RinX list 47500 48700 50000
