Version 4
SHEET 1 1416 728
WIRE -128 -128 -176 -128
WIRE 0 -128 -48 -128
WIRE 1120 -128 1088 -128
WIRE 0 -112 0 -128
WIRE 1088 -96 1088 -128
WIRE -176 -48 -176 -128
WIRE -48 -32 -48 -64
WIRE 0 -32 -48 -32
WIRE 0 0 0 -32
WIRE 48 0 0 0
WIRE 128 0 112 0
WIRE 0 16 0 0
WIRE 1088 32 1088 -16
WIRE 1216 32 1136 32
WIRE 1136 48 1136 32
WIRE 128 64 128 0
WIRE -176 112 -176 32
WIRE 0 112 0 80
WIRE 0 112 -176 112
WIRE 128 112 0 112
WIRE 1136 112 1136 96
WIRE 1216 112 1136 112
WIRE -176 128 -176 112
WIRE 368 160 352 160
WIRE 448 160 368 160
WIRE 528 160 448 160
WIRE 0 176 -64 176
WIRE 32 176 0 176
WIRE 128 176 32 176
WIRE 672 176 640 176
WIRE 528 192 384 192
WIRE -64 208 -64 176
WIRE 128 208 112 208
WIRE 368 224 352 224
WIRE 384 224 384 192
WIRE 384 224 368 224
WIRE 672 224 672 176
WIRE 736 224 672 224
WIRE 448 240 448 160
WIRE 528 240 448 240
WIRE 848 240 832 240
WIRE 928 240 848 240
WIRE 1088 240 1088 112
WIRE 1088 240 1008 240
WIRE 1216 240 1088 240
WIRE 736 256 640 256
WIRE 528 272 448 272
WIRE 1088 272 1088 240
WIRE 112 288 112 208
WIRE 112 288 80 288
WIRE 128 288 112 288
WIRE -64 304 -64 288
WIRE 32 352 32 176
WIRE 448 352 448 272
WIRE 448 352 32 352
WIRE 1088 352 1088 336
FLAG -64 304 0
FLAG -176 128 0
FLAG -176 -128 vcc
FLAG 0 176 det_out
FLAG 368 160 Q
FLAG 80 288 vcc
FLAG 368 224 Qn
FLAG 848 240 Qo
FLAG 1088 352 0
FLAG 784 208 vcc
FLAG 784 272 0
FLAG 1216 208 vcc
FLAG 1312 224 prot
FLAG 1088 -128 vcc
FLAG 1264 192 vcc
FLAG 1264 256 0
SYMBOL voltage -176 -64 R0
WINDOW 123 0 0 Left 0
WINDOW 39 0 0 Left 0
WINDOW 3 -257 94 Left 2
SYMATTR Value PULSE(5 0 240m 1u 1u 100m)
SYMATTR InstName V1
SYMBOL cap -16 16 R0
SYMATTR InstName C1
SYMATTR Value 2.2µ
SYMBOL voltage -64 192 R0
WINDOW 3 24 44 Invisible 2
WINDOW 123 0 0 Left 0
WINDOW 39 0 0 Left 0
SYMATTR Value PWL file=validation-vsource-50ms.txt
SYMATTR InstName V3
SYMBOL diode 48 16 R270
WINDOW 0 32 32 VTop 2
WINDOW 3 0 32 VBottom 2
SYMATTR InstName D1
SYMBOL res -32 -144 R90
WINDOW 0 0 56 VBottom 2
WINDOW 3 32 56 VTop 2
SYMATTR InstName R2
SYMATTR Value 1k
SYMBOL 74HC\\74hc32 576 112 R0
SYMATTR InstName U2
SYMATTR SpiceLine VCC=5  SPEED=1.0  TRIPDT=10e-9
SYMBOL 74HC\\74hc32 576 192 R0
SYMATTR InstName U3
SYMATTR SpiceLine VCC=5  SPEED=1.0  TRIPDT=10e-9
SYMBOL 74hc123 240 0 R0
SYMATTR InstName U1
SYMATTR SpiceLine VCC=5  SPEED=1.0  TRIPDT=1e-5
SYMBOL pot -16 -64 M0
WINDOW 39 -48 18 Invisible 1
SYMATTR SpiceLine wiper=0
SYMATTR InstName U10
SYMATTR Value Rtot=50K
SYMBOL res 1024 224 R90
WINDOW 0 0 56 VBottom 2
WINDOW 3 32 56 VTop 2
SYMATTR InstName R1
SYMATTR Value 20k
SYMBOL cap 1072 272 R0
SYMATTR InstName C2
SYMATTR Value 470p
SYMBOL sn74hcs08 784 240 R0
SYMATTR InstName U4
SYMBOL res 1072 -112 R0
SYMATTR InstName R3
SYMATTR Value 2k
SYMBOL sw 1088 128 R180
SYMATTR InstName S1
SYMATTR Value mysw
SYMBOL voltage 1216 16 R0
WINDOW 123 0 0 Left 0
WINDOW 39 0 0 Left 0
SYMATTR InstName V2
SYMATTR Value 0
SYMBOL sn74hcs08 1264 224 R0
SYMATTR InstName U5
TEXT -224 408 Left 2 !.tran 200m
TEXT -224 384 Left 2 !.lib 74HC.lib
TEXT -224 432 Left 2 !.model mysw SW(Ron=.01 Roff=1G Vt=0.5 Vh=0 Lser=0 Vser=0)
RECTANGLE Normal 640 128 528 304 2
