Version 4
SHEET 1 884 680
WIRE -96 -128 -176 -128
WIRE 0 -128 -96 -128
WIRE 48 -128 0 -128
WIRE 0 -112 0 -128
WIRE 432 -80 416 -80
WIRE 48 -64 48 -128
WIRE -176 -48 -176 -128
WIRE 432 -48 432 -80
WIRE 464 -48 432 -48
WIRE 464 -16 384 -16
WIRE 0 0 0 -32
WIRE 48 0 0 0
WIRE 128 0 112 0
WIRE 0 16 0 0
WIRE 128 64 128 0
WIRE -176 112 -176 32
WIRE 0 112 0 80
WIRE 0 112 -176 112
WIRE 128 112 0 112
WIRE -176 128 -176 112
WIRE 368 160 352 160
WIRE 464 160 368 160
WIRE 0 176 -64 176
WIRE 32 176 0 176
WIRE 128 176 80 176
WIRE 464 192 416 192
WIRE -64 208 -64 176
WIRE 32 208 32 176
WIRE 128 208 32 208
WIRE 128 288 80 288
WIRE -64 304 -64 288
WIRE 32 352 32 208
WIRE 176 352 32 352
WIRE 256 352 240 352
WIRE 416 352 416 192
WIRE 416 352 320 352
FLAG -64 304 0
FLAG -176 128 0
FLAG -96 -128 vcc
FLAG 0 176 quench
FLAG 528 160 Qo
FLAG 368 160 Q
FLAG 80 288 vcc
FLAG 352 224 Qn
FLAG 80 176 0
SYMBOL 74HC\\74hc123 240 0 R0
WINDOW 0 -79 24 Left 2
WINDOW 3 5 24 Left 2
SYMATTR InstName U1
SYMATTR SpiceLine VCC=5  SPEED=1.0  TRIPDT=1e-5
SYMBOL voltage -176 -64 R0
WINDOW 123 0 0 Left 0
WINDOW 39 0 0 Left 0
WINDOW 3 -257 94 Left 2
SYMATTR Value PULSE(5 0 240m 1u 1u 100m)
SYMATTR InstName V1
SYMBOL cap -16 16 R0
SYMATTR InstName C1
SYMATTR Value 11µ
SYMBOL voltage -64 192 R0
WINDOW 3 24 44 Invisible 2
WINDOW 123 0 0 Left 0
WINDOW 39 0 0 Left 0
SYMATTR Value PWL file=validation-vsource-50ms.txt
SYMATTR InstName V3
SYMBOL diode 48 16 R270
WINDOW 0 32 32 VTop 2
WINDOW 3 0 32 VBottom 2
SYMATTR InstName D1
SYMBOL Digital\\or 496 112 R0
SYMATTR InstName A1
SYMBOL Digital\\inv 176 288 R0
WINDOW 3 0 0 Invisible 0
WINDOW 0 13 40 Left 2
SYMATTR Value td=50u
SYMATTR InstName A2
SYMBOL Digital\\inv 256 288 R0
WINDOW 0 16 42 Left 2
SYMATTR InstName A3
SYMBOL pot -16 -128 R0
WINDOW 3 72 44 Left 2
SYMATTR Value Rtot=10K wiper=1
SYMATTR InstName R1
SYMBOL Digital\\xor 400 -32 M180
WINDOW 0 2 100 Left 2
SYMATTR InstName A4
SYMBOL Digital\\and 496 -96 R0
SYMATTR InstName A5
SYMBOL Digital\\and 496 224 R0
SYMATTR InstName A6
TEXT -192 344 Left 2 !.tran 300ms
TEXT -192 320 Left 2 !.lib 74HC.lib
TEXT -192 296 Left 2 !.lib pot.sub
