Version 4
SHEET 1 880 680
WIRE 80 -32 -16 -32
WIRE 304 -32 80 -32
WIRE 464 -32 304 -32
WIRE 464 -16 464 -32
WIRE -16 0 -16 -32
WIRE 80 0 80 -32
WIRE 320 80 256 80
WIRE -16 96 -16 80
WIRE 464 96 464 64
WIRE 464 96 384 96
WIRE 80 112 80 80
WIRE 288 112 80 112
WIRE 320 112 288 112
WIRE 80 128 80 112
WIRE 352 144 352 128
WIRE 32 224 32 160
WIRE 80 224 80 208
WIRE 80 224 32 224
WIRE 288 224 80 224
WIRE 320 224 288 224
WIRE 464 240 464 96
WIRE 464 240 384 240
WIRE 256 256 256 80
WIRE 288 256 256 256
WIRE 320 256 288 256
WIRE 80 288 80 224
WIRE 256 288 256 256
WIRE 80 400 80 368
WIRE 256 400 256 368
FLAG 80 400 0
FLAG -16 96 0
FLAG 256 400 0
FLAG 304 -32 vcc
FLAG 288 256 in
FLAG 464 96 out
FLAG 352 272 0
FLAG 352 144 0
FLAG 352 64 vcc
FLAG 352 208 vcc
FLAG 288 112 Vh
FLAG 288 224 Vl
SYMBOL res 448 -32 R0
SYMATTR InstName R4
SYMATTR Value 5k
SYMBOL res 64 -16 R0
SYMATTR InstName R1
SYMATTR Value 10k
SYMBOL res 64 272 R0
SYMATTR InstName R3
SYMATTR Value 10k
SYMBOL voltage -16 -16 R0
WINDOW 123 0 0 Left 0
WINDOW 39 0 0 Left 0
WINDOW 3 -39 91 Left 2
WINDOW 0 -35 16 Left 2
SYMATTR Value 3V
SYMATTR InstName V1
SYMBOL voltage 256 272 R0
WINDOW 3 24 34 Invisible 1
WINDOW 0 38 56 Left 2
SYMATTR Value PWL REPEAT FOR 2 (0 0 +3m 3 +3m 0) ENDREPEAT
SYMATTR InstName V2
SYMBOL Comparators\\LT1017 352 96 R0
SYMATTR InstName U5
SYMBOL Comparators\\LT1017 352 240 R0
SYMATTR InstName U6
SYMBOL pot 96 224 R180
WINDOW 3 -148 49 Invisible 2
WINDOW 0 -30 60 Left 2
SYMATTR InstName R2
TEXT 376 392 Left 2 !.tran 12m
TEXT 376 360 Left 2 !.include pot.sub
